ProyectosQGZ-Shape/power-flow/XfmrCode.dss
New XfmrCode.substationtyp3ph phases=3 windings=2 kvs=[115.0, 4.16] kvas=[5000.0, 5000.0] conns=[delta, wye] %rs=[0.5, 0.5] xhl=8 xht=4.0 xlt=4.0 maxtap=1.1 mintap=0.9
New XfmrCode.xfm_1typ phases=3 windings=2 kvs=[4.16, 0.48] kvas=[500.0, 500.0] conns=[wye, wye] %rs=[0.55, 0.55] xhl=2 xht=1.0 xlt=1.0 maxtap=1.0 mintap=1.0
New XfmrCode.autotrf1ph phases=1 windings=2 kvs=[2.401777, 2.401777] kvas=[1667.0, 1667.0] conns=[delta, delta] xhl=0 maxtap=1.1 mintap=0.9
